psse_raw/11BUS_KUNDUR_30.raw
0,   100.00, 30, 0, 1,  60.00     / PSS(R)E 30 RAW created by rawd30  TUE, AUG 02 2022  11:23


     1,'BUS 1       ',  20.0000,2,     0.000,     0.000,   1,   1,1.03000,  27.0698,   1
     2,'BUS 2       ',  20.0000,2,     0.000,     0.000,   1,   1,1.01000,  17.3055,   1
     3,'BUS 3       ',  20.0000,3,     0.000,     0.000,   2,   1,1.03000,   0.0000,   1
     4,'BUS 4       ',  20.0000,2,     0.000,     0.000,   2,   1,1.01000, -10.1917,   1
     5,'BUS 5       ', 230.0000,1,     0.000,     0.000,   1,   1,1.00646,  20.6078,   1
     6,'BUS 6       ', 230.0000,1,     0.000,     0.000,   1,   1,0.97813,  10.5233,   1
     7,'BUS 7       ', 230.0000,1,     0.000,   200.000,   1,   1,0.96102,   2.1143,   1
     8,'BUS 8       ', 230.0000,1,     0.000,     0.000,   3,   1,0.94862, -11.7551,   1
     9,'BUS 9       ', 230.0000,1,     0.000,   350.000,   2,   1,0.97138, -25.3519,   1
    10,'BUS 10      ', 230.0000,1,     0.000,     0.000,   2,   1,0.98347, -16.9369,   1
    11,'BUS 11      ', 230.0000,1,     0.000,     0.000,   2,   1,1.00826,  -6.6270,   1
 0 /End of Bus data, Begin Load data
     7,'1 ',1,   1,   1,   967.000,   100.000,     0.000,     0.000,     0.000,     0.000,   1
     9,'1 ',1,   2,   1,  1767.000,   100.000,     0.000,     0.000,     0.000,     0.000,   1
 0 /End of Load data, Begin Generator data
     1,'1 ',   700.000,   185.002,  9999.000, -9999.000,1.03000,     0,   900.000,   0.00250,   0.25000,   0.00000,   0.00000,1.00000,1,  100.0,  9999.000, -9999.000,   1,1.0000
     2,'1 ',   700.000,   234.578,  9999.000, -9999.000,1.01000,     0,   900.000,   0.00250,   0.25000,   0.00000,   0.00000,1.00000,1,  100.0,  9999.000, -9999.000,   1,1.0000
     3,'1 ',   719.083,   175.993,  9999.000, -9999.000,1.03000,     0,   900.000,   0.00250,   0.25000,   0.00000,   0.00000,1.00000,1,  100.0,  9999.000, -9999.000,   1,1.0000
     4,'1 ',   700.000,   202.038,  9999.000, -9999.000,1.01000,     0,   900.000,   0.00250,   0.25000,   0.00000,   0.00000,1.00000,1,  100.0,  9999.000, -9999.000,   1,1.0000
 0 /End of Generator data, Begin Branch data
     5,      6,'1 ',   0.00250,   0.02500,   0.04375,    0.00,    0.00,    0.00,  0.00000,  0.00000,  0.00000,  0.00000,1,  25.00,   1,1.0000
     6,      7,'1 ',   0.00100,   0.01000,   0.01750,    0.00,    0.00,    0.00,  0.00000,  0.00000,  0.00000,  0.00000,1,  10.00,   1,1.0000
     7,      8,'1 ',   0.01100,   0.11000,   0.19250,    0.00,    0.00,    0.00,  0.00000,  0.00000,  0.00000,  0.00000,1, 110.00,   1,1.0000
     7,      8,'2 ',   0.01100,   0.11000,   0.19250,    0.00,    0.00,    0.00,  0.00000,  0.00000,  0.00000,  0.00000,1, 110.00,   1,1.0000
     8,      9,'1 ',   0.01100,   0.11000,   0.19250,    0.00,    0.00,    0.00,  0.00000,  0.00000,  0.00000,  0.00000,1, 110.00,   1,1.0000
     8,      9,'2 ',   0.01100,   0.11000,   0.19250,    0.00,    0.00,    0.00,  0.00000,  0.00000,  0.00000,  0.00000,1, 110.00,   1,1.0000
     9,     10,'1 ',   0.00100,   0.01000,   0.01750,    0.00,    0.00,    0.00,  0.00000,  0.00000,  0.00000,  0.00000,1,  10.00,   1,1.0000
    10,     11,'1 ',   0.00250,   0.02500,   0.04375,    0.00,    0.00,    0.00,  0.00000,  0.00000,  0.00000,  0.00000,1,  25.00,   1,1.0000
 0 /End of Branch data, Begin Transformer data
     1,     5,     0,'1 ',1,1,1,   0.00000,   0.00000,2,'TRFO1-5                                 ',1,   1,1.0000
   0.00000,   0.01667,   100.00
1.00000,   0.000,   0.000,   900.00,     0.00,     0.00, 0,      0, 1.10000, 0.90000, 1.10000, 0.90000,  33, 0, 0.00000, 0.00000
1.00000,   0.000
     2,     6,     0,'1 ',1,1,1,   0.00000,   0.00000,2,'TRFO2-6                                 ',1,   1,1.0000
   0.00000,   0.01667,   100.00
1.00000,   0.000,   0.000,   900.00,     0.00,     0.00, 0,      0, 1.10000, 0.90000, 1.10000, 0.90000,  33, 0, 0.00000, 0.00000
1.00000,   0.000
     3,    11,     0,'1 ',1,1,1,   0.00000,   0.00000,2,'TRFO3-11                                ',1,   1,1.0000
   0.00000,   0.01667,   100.00
1.00000,   0.000,   0.000,   900.00,     0.00,     0.00, 0,      0, 1.10000, 0.90000, 1.10000, 0.90000,  33, 0, 0.00000, 0.00000
1.00000,   0.000
     4,    10,     0,'1 ',1,1,1,   0.00000,   0.00000,2,'TRFO4-10                                ',1,   1,1.0000
   0.00000,   0.01667,   100.00
1.00000,   0.000,   0.000,   900.00,     0.00,     0.00, 0,      0, 1.10000, 0.90000, 1.10000, 0.90000,  33, 0, 0.00000, 0.00000
1.00000,   0.000
 0 /End of Transformer data, Begin Area interchange data
 0 /End of Area interchange data, Begin Two-terminal dc line data
 0 /End of Two-terminal dc line data, Begin VSC dc line data
 0 /End of VSC dc line data, Begin Switched shunt data
 0 /End of Switched shunt data, Begin Impedance correction table data
 0 /End of Impedance correction table data, Begin Multi-terminal dc line data
 0 /End of Multi-terminal dc line data, Begin Multi-section line data
 0 /End of Multi-section line data, Begin Zone data
 0 /End of Zone data, Begin Inter-area transfer data
 0 /End of Inter-area transfer data, Begin Owner data
 0 /End of Owner data, Begin FACTS device data
 0 /End of FACTS device data
